  Page 1                                    Thu Sep 26 12:40:48 2019

  ******************************************************************
  *                           E P A N E T                          *
  *                   Hydraulic and Water Quality                  *
  *                   Analysis for Pipe Networks                   *
  *                         Version 2.2                            *
  ******************************************************************
  
  Analysis begun Thu Sep 26 12:40:48 2019

  Analysis ended Thu Sep 26 12:40:48 2019
