  Page 1                                    Fri Sep 27 17:51:04 2019

  ******************************************************************
  *                           E P A N E T                          *
  *                   Hydraulic and Water Quality                  *
  *                   Analysis for Pipe Networks                   *
  *                         Version 2.2                            *
  ******************************************************************
  
  Analysis begun Fri Sep 27 17:51:04 2019

  Analysis ended Fri Sep 27 17:51:04 2019
